/*--------------------------------*- C++ -*----------------------------------*\
| =========                 |                                                 |
| \\      /  F ield         | OpenFOAM: The Open Source CFD Toolbox           |
|  \\    /   O peration     | Version:  2.3.x                                 |
|   \\  /    A nd           | Web:      www.OpenFOAM.org                      |
|    \\/     M anipulation  |                                                 |
\*---------------------------------------------------------------------------*/
FoamFile
{
    version     2.0;
    format      ascii;
    class       volVectorField;
    location    "0";
    object      U;
}
// * * * * * * * * * * * * * * * * * * * * * * * * * * * * * * * * * * * * * //

dimensions      [0 1 -1 0 0 0 0];

internalField   uniform (0 0 0);

boundaryField
{
    entrada
    {
        type            fixedValue;
        value           uniform (1 0 0);
    }
    saida
    {
        type            zeroGradient;
    }
    cilindro
    {
        type            fixedValue;
        value           uniform (0 0 0);
    }
    dominio
    {
        type            fixedValue;
        value           uniform (0 0 0);
    }
    topo
    {
        type            empty;
    }
    fundo
    {
        type            empty;
    }
    bocal
    {
        type            fixedValue;
        value           uniform (0 0 0);
    }
}


// ************************************************************************* //
